 240
nanotube 
C             3.887         0.000         0.000
C             3.697         1.201         2.115
C             3.887         0.000         1.410
C             3.697         1.201         3.525
C             3.887         0.000         4.230
C             3.697         1.201         6.345
C             3.887         0.000         5.640
C             3.697         1.201         7.755
C             3.887         0.000         8.460
C             3.697         1.201         10.575
C             3.887         0.000         9.870
C             3.697         1.201         11.985
C             3.887         0.000         12.690
C             3.697         1.201         14.805
C             3.887         0.000         14.100
C             3.697         1.201         16.215
C             3.887         0.000         16.920
C             3.697         1.201         19.035
C             3.887         0.000         18.330
C             3.697         1.201         20.445
C             3.887         0.000         21.150
C             3.697         1.201         23.265
C             3.887         0.000         22.560
C             3.697         1.201         24.675
C             3.145         2.285         0.000
C             2.285         3.145         2.115
C             3.145         2.285         1.410
C             2.285         3.145         3.525
C             3.145         2.285         4.230
C             2.285         3.145         6.345
C             3.145         2.285         5.640
C             2.285         3.145         7.755
C             3.145         2.285         8.460
C             2.285         3.145         10.575
C             3.145         2.285         9.870
C             2.285         3.145         11.985
C             3.145         2.285         12.690
C             2.285         3.145         14.805
C             3.145         2.285         14.100
C             2.285         3.145         16.215
C             3.145         2.285         16.920
C             2.285         3.145         19.035
C             3.145         2.285         18.330
C             2.285         3.145         20.445
C             3.145         2.285         21.150
C             2.285         3.145         23.265
C             3.145         2.285         22.560
C             2.285         3.145         24.675
C             1.201         3.697         0.000
C             0.000         3.887         2.115
C             1.201         3.697         1.410
C             0.000         3.887         3.525
C             1.201         3.697         4.230
C             0.000         3.887         6.345
C             1.201         3.697         5.640
C             0.000         3.887         7.755
C             1.201         3.697         8.460
C             0.000         3.887         10.575
C             1.201         3.697         9.870
C             0.000         3.887         11.985
C             1.201         3.697         12.690
C             0.000         3.887         14.805
C             1.201         3.697         14.100
C             0.000         3.887         16.215
C             1.201         3.697         16.920
C             0.000         3.887         19.035
C             1.201         3.697         18.330
C             0.000         3.887         20.445
C             1.201         3.697         21.150
C             0.000         3.887         23.265
C             1.201         3.697         22.560
C             0.000         3.887         24.675
C             -1.201        3.697         0.000
C             -2.285        3.145         2.115
C             -1.201        3.697         1.410
C             -2.285        3.145         3.525
C             -1.201        3.697         4.230
C             -2.285        3.145         6.345
C             -1.201        3.697         5.640
C             -2.285        3.145         7.755
C             -1.201        3.697         8.460
C             -2.285        3.145         10.575
C             -1.201        3.697         9.870
C             -2.285        3.145         11.985
C             -1.201        3.697         12.690
C             -2.285        3.145         14.805
C             -1.201        3.697         14.100
C             -2.285        3.145         16.215
C             -1.201        3.697         16.920
C             -2.285        3.145         19.035
C             -1.201        3.697         18.330
C             -2.285        3.145         20.445
C             -1.201        3.697         21.150
C             -2.285        3.145         23.265
C             -1.201        3.697         22.560
C             -2.285        3.145         24.675
C             -3.145        2.285         0.000
C             -3.697        1.201         2.115
C             -3.145        2.285         1.410
C             -3.697        1.201         3.525
C             -3.145        2.285         4.230
C             -3.697        1.201         6.345
C             -3.145        2.285         5.640
C             -3.697        1.201         7.755
C             -3.145        2.285         8.460
C             -3.697        1.201         10.575
C             -3.145        2.285         9.870
C             -3.697        1.201         11.985
C             -3.145        2.285         12.690
C             -3.697        1.201         14.805
C             -3.145        2.285         14.100
C             -3.697        1.201         16.215
C             -3.145        2.285         16.920
C             -3.697        1.201         19.035
C             -3.145        2.285         18.330
C             -3.697        1.201         20.445
C             -3.145        2.285         21.150
C             -3.697        1.201         23.265
C             -3.145        2.285         22.560
C             -3.697        1.201         24.675
C             -3.887        0.000         0.000
C             -3.697        -1.201        2.115
C             -3.887        0.000         1.410
C             -3.697        -1.201        3.525
C             -3.887        0.000         4.230
C             -3.697        -1.201        6.345
C             -3.887        0.000         5.640
C             -3.697        -1.201        7.755
C             -3.887        0.000         8.460
C             -3.697        -1.201        10.575
C             -3.887        0.000         9.870
C             -3.697        -1.201        11.985
C             -3.887        0.000         12.690
C             -3.697        -1.201        14.805
C             -3.887        0.000         14.100
C             -3.697        -1.201        16.215
C             -3.887        0.000         16.920
C             -3.697        -1.201        19.035
C             -3.887        0.000         18.330
C             -3.697        -1.201        20.445
C             -3.887        0.000         21.150
C             -3.697        -1.201        23.265
C             -3.887        0.000         22.560
C             -3.697        -1.201        24.675
C             -3.145        -2.285        0.000
C             -2.285        -3.145        2.115
C             -3.145        -2.285        1.410
C             -2.285        -3.145        3.525
C             -3.145        -2.285        4.230
C             -2.285        -3.145        6.345
C             -3.145        -2.285        5.640
C             -2.285        -3.145        7.755
C             -3.145        -2.285        8.460
C             -2.285        -3.145        10.575
C             -3.145        -2.285        9.870
C             -2.285        -3.145        11.985
C             -3.145        -2.285        12.690
C             -2.285        -3.145        14.805
C             -3.145        -2.285        14.100
C             -2.285        -3.145        16.215
C             -3.145        -2.285        16.920
C             -2.285        -3.145        19.035
C             -3.145        -2.285        18.330
C             -2.285        -3.145        20.445
C             -3.145        -2.285        21.150
C             -2.285        -3.145        23.265
C             -3.145        -2.285        22.560
C             -2.285        -3.145        24.675
C             -1.201        -3.697        0.000
C             0.000         -3.887        2.115
C             -1.201        -3.697        1.410
C             0.000         -3.887        3.525
C             -1.201        -3.697        4.230
C             0.000         -3.887        6.345
C             -1.201        -3.697        5.640
C             0.000         -3.887        7.755
C             -1.201        -3.697        8.460
C             0.000         -3.887        10.575
C             -1.201        -3.697        9.870
C             0.000         -3.887        11.985
C             -1.201        -3.697        12.690
C             0.000         -3.887        14.805
C             -1.201        -3.697        14.100
C             0.000         -3.887        16.215
C             -1.201        -3.697        16.920
C             0.000         -3.887        19.035
C             -1.201        -3.697        18.330
C             0.000         -3.887        20.445
C             -1.201        -3.697        21.150
C             0.000         -3.887        23.265
C             -1.201        -3.697        22.560
C             0.000         -3.887        24.675
C             1.201         -3.697        0.000
C             2.285         -3.145        2.115
C             1.201         -3.697        1.410
C             2.285         -3.145        3.525
C             1.201         -3.697        4.230
C             2.285         -3.145        6.345
C             1.201         -3.697        5.640
C             2.285         -3.145        7.755
C             1.201         -3.697        8.460
C             2.285         -3.145        10.575
C             1.201         -3.697        9.870
C             2.285         -3.145        11.985
C             1.201         -3.697        12.690
C             2.285         -3.145        14.805
C             1.201         -3.697        14.100
C             2.285         -3.145        16.215
C             1.201         -3.697        16.920
C             2.285         -3.145        19.035
C             1.201         -3.697        18.330
C             2.285         -3.145        20.445
C             1.201         -3.697        21.150
C             2.285         -3.145        23.265
C             1.201         -3.697        22.560
C             2.285         -3.145        24.675
C             3.145         -2.285        0.000
C             3.697         -1.201        2.115
C             3.145         -2.285        1.410
C             3.697         -1.201        3.525
C             3.145         -2.285        4.230
C             3.697         -1.201        6.345
C             3.145         -2.285        5.640
C             3.697         -1.201        7.755
C             3.145         -2.285        8.460
C             3.697         -1.201        10.575
C             3.145         -2.285        9.870
C             3.697         -1.201        11.985
C             3.145         -2.285        12.690
C             3.697         -1.201        14.805
C             3.145         -2.285        14.100
C             3.697         -1.201        16.215
C             3.145         -2.285        16.920
C             3.697         -1.201        19.035
C             3.145         -2.285        18.330
C             3.697         -1.201        20.445
C             3.145         -2.285        21.150
C             3.697         -1.201        23.265
C             3.145         -2.285        22.560
C             3.697         -1.201        24.675
