 36 
water ice
H         -0.97771    -1.20044    -1.71873
H          0.01722     1.71814    -1.54877
O          1.58609    -2.77565    -2.63474
O         -0.81436    -2.02348    -1.49910
H          0.87236    -2.55200    -2.29708
H          1.43824    -3.44512    -3.15673
H         -0.74633    -2.09470    -0.63736
O          3.04052     1.49085    -2.38629
O          0.64007     2.24302    -1.25065
H          2.32678     1.71449    -2.04863
H          3.34955     2.16162    -2.83024
H          0.70679     2.16796    -0.38913
O          3.77497    -1.34780     1.04631
O          1.37452    -0.59563     2.18194
H          3.06124    -1.12415     1.38397
H          4.31472    -1.56874     1.68065
H          0.75101    -1.11795     1.88073
H          1.20920     0.22613     1.95900
O         -1.37452     0.59563    -2.18194
O         -3.77497     1.34780    -1.04631
H         -2.08826     0.81927    -1.84428
H         -1.44698     0.67014    -3.03735
H         -3.63156     2.02056    -0.51797
H         -4.08975     0.67648    -0.59624
H         -3.58733    -1.26535     1.75189
H         -2.13421     2.99730     2.00012
O         -0.64007    -2.24302     1.25065
O          0.81436     2.02348     1.49910
O         -3.04052    -1.49085     2.38629
O         -1.58609     2.77565     2.63474
H         -1.35380    -2.01937     1.58832
H          0.10063     2.24712     1.83677
H         -0.48181    -3.06021     1.47353
H          1.42950     2.54652     1.80003
H         -1.90283     2.10304     3.08149
H         -2.89776    -0.81553     2.91153
